15
Coordinates from ORCA-job aniline_2 E -287.240084733927
N        9.4787956448     11.7967977314     10.9611979466                 
C       11.7896896648     12.6134959211     10.8762229189                 
C       10.8770890260     11.5461065268     10.9420065425                 
C       13.1657600469     12.3645783208     10.8602256713                 
C       11.3639529916     10.2282459226     10.9948501490                 
C       13.6410154940     11.0512921884     10.9112536497                 
C       12.7409746309      9.9841702691     10.9788786018                 
H       11.4342148143     13.6354740463     10.8374796340                 
H        9.2000505209     11.9268084409     11.8434151485                 
H       13.8638984108     13.1900955057     10.8088842442                 
H       10.6773440588      9.3926664004     11.0486758445                 
H       14.7064319527     10.8605270878     10.8991662283                 
H       13.1102949805      8.9676718035     11.0194564133                 
H        9.2114436226     12.6844549984     10.5102818652                 
H        8.9068736051     11.0014921851     10.6402757623                 
              
            
