14
Coordinates from ORCA-job aniline_2 E -287.240084733927
N       -2.1912572803      0.1101734517      0.6735260420                 
C       -0.8230402211      0.1361542214      0.3076825075                 
C       -0.1487628730      1.3604080873      0.1779276562                 
C       -0.1310462677     -1.0621583196      0.0721525777                 
C        1.2022824342      1.3842833940     -0.1833409756                 
C        1.2199877267     -1.0347347980     -0.2889051590                 
C        1.8862229250      0.1875900623     -0.4165733019                 
H       -0.6687475045      2.2933200737      0.3562250658                 
H       -0.6372328455     -2.0145519588      0.1681737985                 
H        1.7188928118      2.3302252264     -0.2824452050                 
H        1.7503096872     -1.9608011968     -0.4696628924                 
H        2.9316823476      0.2074367196     -0.6960228224                 
H       -2.6931524395     -0.7846872665      0.7703846897                 
H       -2.7058575342      0.9857254745      0.8486006721                 
           
