17
Coordinates from ORCA-job p_toluidine_2 E -326.503807576374
N       -2.8095130853      0.1531312090      0.0597517382                 
C        1.4171801274      0.0104170310      0.0080078058                 
C       -1.3938528458      0.1051623054      0.0425835292                 
C        0.6689603979     -1.1773399444      0.0350176131                 
C        0.7503792274      1.2445224080     -0.0014274606                 
C       -0.7285155976     -1.1293275861      0.0521834235                 
C       -0.6469656019      1.2917605644      0.0157658830                 
C        2.9167101881     -0.0252856685     -0.0109322181                 
H        1.1643571323     -2.1403025519      0.0427351817                 
H        1.3133438931      2.1696828458     -0.0221676771                 
H       -1.2920854266     -2.0537396650      0.0728795702                 
H       -1.1467502048      2.2523341251      0.0081108700                 
H        3.3139031642      0.5038167360      0.8808023678                 
H        3.3007322360     -1.0675854316     -0.0006486384                 
H        3.2902718659      0.4771912832     -0.9279319252                 
H       -3.3055965567      1.0564095703      0.0526984789                 
H       -3.3652847669     -0.7145073411      0.0792618435                 
